@<TRIPOS>MOLECULE
4ya8
92 95 1 0 0
SMALL
NO_CHARGES


@<TRIPOS>ATOM
      1 O3        -65.7700  -21.5950  -16.7990 O.2       1 49W    0.0000
      2 C15       -64.8160  -22.2440  -17.2460 C.2       1 49W    0.0000
      3 C25       -64.3170  -23.5000  -16.4440 C.ar      1 49W    0.0000
      4 C24       -63.1140  -23.4640  -15.7430 C.ar      1 49W    0.0000
      5 C26       -65.1090  -24.6690  -16.4270 C.ar      1 49W    0.0000
      6 C27       -64.6890  -25.7950  -15.7100 C.ar      1 49W    0.0000
      7 N2        -65.5140  -26.9550  -15.7250 N.ar      1 49W    0.0000
      8 C30       -64.9610  -28.1950  -15.8830 C.ar      1 49W    0.0000
      9 C31       -65.7960  -29.3360  -15.9050 C.ar      1 49W    0.0000
     10 C32       -67.1580  -29.1940  -15.7720 C.ar      1 49W    0.0000
     11 C29       -67.7080  -27.9480  -15.6200 C.ar      1 49W    0.0000
     12 C47       -66.8740  -26.8130  -15.5990 C.ar      1 49W    0.0000
     13 C22       -63.4770  -25.7720  -15.0070 C.ar      1 49W    0.0000
     14 C23       -62.6870  -24.5980  -15.0210 C.ar      1 49W    0.0000
     15 C28       -61.3350  -24.5520  -14.2380 C.2       1 49W    0.0000
     16 N3        -61.2790  -23.9410  -12.9040 N.am      1 49W    0.0000
     17 C33       -60.0170  -23.8850  -12.1500 C.3       1 49W    0.0000
     18 C34       -60.2380  -24.4570  -10.7390 C.3       1 49W    0.0000
     19 C35       -59.3240  -23.7360   -9.7270 C.3       1 49W    0.0000
     20 C36       -62.5050  -23.3820  -12.3120 C.3       1 49W    0.0000
     21 C37       -62.5320  -21.8660  -12.5480 C.3       1 49W    0.0000
     22 C38       -63.2670  -21.2170  -11.3880 C.3       1 49W    0.0000
     23 O6        -60.3230  -25.0230  -14.7420 O.2       1 49W    0.0000
     24 N1        -64.1800  -21.8470  -18.4940 N.am      1 49W    0.0000
     25 C11       -64.6780  -20.6760  -19.1840 C.3       1 49W    0.0000
     26 C14       -63.6530  -19.5790  -19.0980 C.3       1 49W    0.0000
     27 C19       -63.3920  -19.3540  -17.5890 C.ar      1 49W    0.0000
     28 C20       -62.2350  -19.8470  -16.9910 C.ar      1 49W    0.0000
     29 C21       -62.0120  -19.6510  -15.6230 C.ar      1 49W    0.0000
     30 C16       -62.9510  -18.9660  -14.8660 C.ar      1 49W    0.0000
     31 C17       -64.1090  -18.4850  -15.4660 C.ar      1 49W    0.0000
     32 C18       -64.3360  -18.6740  -16.8210 C.ar      1 49W    0.0000
     33 C10       -65.0310  -20.9860  -20.6460 C.3       1 49W    0.0000
     34 O2        -63.9480  -20.6970  -21.4740 O.3       1 49W    0.0000
     35 C9        -65.3970  -22.4380  -20.7730 C.3       1 49W    0.0000
     36 N4        -64.9820  -22.9320  -22.0710 N.4       1 49W    0.0000
     37 C7        -66.0650  -23.7180  -22.6800 C.3       1 49W    0.0000
     38 C12       -67.2490  -22.7990  -22.9700 C.3       1 49W    0.0000
     39 C13       -65.5790  -24.3300  -23.9740 C.3       1 49W    0.0000
     40 C3        -66.5350  -24.8730  -21.7060 C.ar      1 49W    0.0000
     41 N5        -65.5970  -25.6130  -20.9760 N.ar      1 49W    0.0000
     42 C1        -66.0220  -26.6200  -20.1260 C.ar      1 49W    0.0000
     43 C6        -67.3790  -26.9000  -20.0080 C.ar      1 49W    0.0000
     44 C5        -68.3070  -26.1700  -20.7340 C.ar      1 49W    0.0000
     45 C4        -67.8870  -25.1550  -21.5840 C.ar      1 49W    0.0000
     46 H24       -62.5091  -22.5693  -15.7522 H         1 49W    0.0000
     47 H26       -66.0425  -24.6942  -16.9695 H         1 49W    0.0000
     48 H30       -63.8918  -28.3028  -15.9905 H         1 49W    0.0000
     49 H31       -65.3647  -30.3187  -16.0262 H         1 49W    0.0000
     50 H32       -67.7949  -30.0661  -15.7874 H         1 49W    0.0000
     51 H29       -68.7773  -27.8367  -15.5167 H         1 49W    0.0000
     52 H47       -67.3049  -25.8294  -15.4836 H         1 49W    0.0000
     53 H22       -63.1486  -26.6429  -14.4592 H         1 49W    0.0000
     54 H332      -59.2588  -24.4739  -12.6662 H         1 49W    0.0000
     55 H333      -59.6842  -22.8498  -12.0746 H         1 49W    0.0000
     56 H342      -60.0046  -25.5217  -10.7409 H         1 49W    0.0000
     57 H343      -61.2795  -24.3155  -10.4504 H         1 49W    0.0000
     58 H351      -59.4877  -24.1478   -8.7312 H         1 49W    0.0000
     59 H352      -58.2819  -23.8796  -10.0125 H         1 49W    0.0000
     60 H353      -59.5560  -22.6710   -9.7224 H         1 49W    0.0000
     61 H362      -63.3770  -23.8394  -12.7794 H         1 49W    0.0000
     62 H363      -62.5175  -23.5843  -11.2410 H         1 49W    0.0000
     63 H372      -63.0505  -21.6474  -13.4815 H         1 49W    0.0000
     64 H373      -61.5123  -21.4839  -12.5963 H         1 49W    0.0000
     65 H381      -63.2981  -20.1374  -11.5353 H         1 49W    0.0000
     66 H382      -62.7464  -21.4416  -10.4571 H         1 49W    0.0000
     67 H383      -64.2839  -21.6064  -11.3387 H         1 49W    0.0000
     68 HN1       -63.4074  -22.3776  -18.8705 H         1 49W    0.0000
     69 H11       -65.5826  -20.3394  -18.6776 H         1 49W    0.0000
     70 H142      -62.7336  -19.8801  -19.6002 H         1 49W    0.0000
     71 H143      -64.0435  -18.6669  -19.5494 H         1 49W    0.0000
     72 H20       -61.5080  -20.3819  -17.5841 H         1 49W    0.0000
     73 H21       -61.1136  -20.0311  -15.1595 H         1 49W    0.0000
     74 H16       -62.7826  -18.8065  -13.8112 H         1 49W    0.0000
     75 H17       -64.8399  -17.9583  -14.8704 H         1 49W    0.0000
     76 H18       -65.2386  -18.2967  -17.2785 H         1 49W    0.0000
     77 H10       -65.8827  -20.3752  -20.9453 H         1 49W    0.0000
     78 H2        -63.8772  -19.7465  -21.5882 H         1 49W    0.0000
     79 H92       -64.8958  -23.0081  -19.9908 H         1 49W    0.0000
     80 H93       -66.4762  -22.5508  -20.6697 H         1 49W    0.0000
     81 HN42      -64.1658  -23.5166  -21.9609 H         1 49W    0.0000
     82 HN43      -64.7566  -22.1511  -22.6705 H         1 49W    0.0000
     83 H121      -66.9017  -21.9169  -23.5079 H         1 49W    0.0000
     84 H122      -67.9807  -23.3306  -23.5784 H         1 49W    0.0000
     85 H123      -67.7105  -22.4936  -22.0309 H         1 49W    0.0000
     86 H131      -64.7334  -24.9870  -23.7707 H         1 49W    0.0000
     87 H132      -65.2681  -23.5384  -24.6558 H         1 49W    0.0000
     88 H133      -66.3851  -24.9055  -24.4290 H         1 49W    0.0000
     89 H1        -65.3010  -27.1869  -19.5558 H         1 49W    0.0000
     90 H6        -67.7108  -27.6885  -19.3488 H         1 49W    0.0000
     91 H5        -69.3598  -26.3911  -20.6385 H         1 49W    0.0000
     92 H4        -68.6117  -24.5869  -22.1484 H         1 49W    0.0000
@<TRIPOS>BOND
     1    1    2 2
     2    2    3 1
     3    2   24 am
     4    3    4 ar
     5    3    5 ar
     6    4   14 ar
     7    5    6 ar
     8    6    7 1
     9    6   13 ar
    10    7    8 ar
    11    7   12 ar
    12    8    9 ar
    13    9   10 ar
    14   10   11 ar
    15   11   12 ar
    16   13   14 ar
    17   14   15 1
    18   15   16 am
    19   15   23 2
    20   16   17 1
    21   16   20 1
    22   17   18 1
    23   18   19 1
    24   20   21 1
    25   21   22 1
    26   24   25 1
    27   25   26 1
    28   25   33 1
    29   26   27 1
    30   27   28 ar
    31   27   32 ar
    32   28   29 ar
    33   29   30 ar
    34   30   31 ar
    35   31   32 ar
    36   33   34 1
    37   33   35 1
    38   35   36 1
    39   36   37 1
    40   37   38 1
    41   37   39 1
    42   37   40 1
    43   40   41 ar
    44   40   45 ar
    45   41   42 ar
    46   42   43 ar
    47   43   44 ar
    48   44   45 ar
    49   46    4 1
    50   47    5 1
    51   48    8 1
    52   49    9 1
    53   50   10 1
    54   51   11 1
    55   52   12 1
    56   53   13 1
    57   54   17 1
    58   55   17 1
    59   56   18 1
    60   57   18 1
    61   58   19 1
    62   59   19 1
    63   60   19 1
    64   61   20 1
    65   62   20 1
    66   63   21 1
    67   64   21 1
    68   65   22 1
    69   66   22 1
    70   67   22 1
    71   68   24 1
    72   69   25 1
    73   70   26 1
    74   71   26 1
    75   72   28 1
    76   73   29 1
    77   74   30 1
    78   75   31 1
    79   76   32 1
    80   77   33 1
    81   78   34 1
    82   79   35 1
    83   80   35 1
    84   81   36 1
    85   82   36 1
    86   83   38 1
    87   84   38 1
    88   85   38 1
    89   86   39 1
    90   87   39 1
    91   88   39 1
    92   89   42 1
    93   90   43 1
    94   91   44 1
    95   92   45 1
@<TRIPOS>SUBSTRUCTURE
     1 49W     1 RESIDUE           4 A     49W     0 ROOT
