@<TRIPOS>MOLECULE
complex_gas.pdb
89 93 1 0 0
SMALL
NO_CHARGES


@<TRIPOS>ATOM
      1 O27        -0.8910   68.9470    3.2560 O.2       1 IH4    0.0000
      2 C26        -1.8400   68.2670    2.8570 C.2       1 IH4    0.0000
      3 O28        -3.0220   68.8790    2.5530 O.3       1 IH4    0.0000
      4 C29        -3.0090   70.2800    2.8640 C.3       1 IH4    0.0000
      5 C25        -1.6310   66.7920    2.5170 C.3       1 IH4    0.0000
      6 C24        -2.1350   65.8060    3.5640 C.ar      1 IH4    0.0000
      7 C30        -3.4910   65.6560    3.7960 C.ar      1 IH4    0.0000
      8 C31        -3.9180   64.7640    4.7700 C.ar      1 IH4    0.0000
      9 C23        -1.2410   65.0330    4.2950 C.ar      1 IH4    0.0000
     10 C22        -1.6910   64.1420    5.2570 C.ar      1 IH4    0.0000
     11 C21        -3.0430   63.9910    5.5170 C.ar      1 IH4    0.0000
     12 C20        -3.5380   63.0400    6.5110 C.ar      1 IH4    0.0000
     13 C32        -2.9690   61.7830    6.6330 C.ar      1 IH4    0.0000
     14 C33        -3.4340   60.8790    7.5620 C.ar      1 IH4    0.0000
     15 C19        -4.5980   63.3510    7.3690 C.ar      1 IH4    0.0000
     16 C18        -5.0780   62.4550    8.3000 C.ar      1 IH4    0.0000
     17 C17        -4.4850   61.1930    8.4090 C.ar      1 IH4    0.0000
     18 C16        -4.9520   60.1540    9.4040 C.3       1 IH4    0.0000
     19 N3         -5.0380   60.7340   10.7380 N.am      1 IH4    0.0000
     20 C2         -6.3330   60.9490   11.3390 C.2       1 IH4    0.0000
     21 C34        -7.5870   60.6850   10.5280 C.ar      1 IH4    0.0000
     22 C35        -8.1090   59.4030   10.3970 C.ar      1 IH4    0.0000
     23 C36        -9.3290   59.2290    9.7690 C.ar      1 IH4    0.0000
     24 C37       -10.0340   60.3220    9.2920 C.ar      1 IH4    0.0000
     25 C43        -9.4970   61.5990    9.4100 C.ar      1 IH4    0.0000
     26 C44        -8.2740   61.7740   10.0420 C.ar      1 IH4    0.0000
     27 C38       -11.3810   60.1450    8.5830 C.3       1 IH4    0.0000
     28 C39       -11.2020   59.8990    7.0790 C.3       1 IH4    0.0000
     29 C40       -12.5350   59.7950    6.3510 C.3       1 IH4    0.0000
     30 C41       -12.3300   59.5450    4.8560 C.3       1 IH4    0.0000
     31 C42       -13.6550   59.4710    4.0960 C.3       1 IH4    0.0000
     32 O1         -6.4380   61.3570   12.5140 O.2       1 IH4    0.0000
     33 C4         -3.8760   61.0000   11.5890 C.3       1 IH4    0.0000
     34 C5         -3.4970   59.7310   12.3300 C.3       1 IH4    0.0000
     35 C6         -2.3740   60.1040   13.3230 C.3       1 IH4    0.0000
     36 N7         -1.2360   60.7380   12.6050 N.4       1 IH4    0.0000
     37 C14        -1.6340   61.8880   11.7690 C.3       1 IH4    0.0000
     38 C15        -2.7030   61.4740   10.7650 C.3       1 IH4    0.0000
     39 C8         -0.3000   61.3920   13.5590 C.3       1 IH4    0.0000
     40 C9          0.2830   60.3450   14.4860 C.ar      1 IH4    0.0000
     41 N10        -0.0690   60.3280   15.8140 N.ar      1 IH4    0.0000
     42 C11         0.6090   59.2900   16.4040 C.ar      1 IH4    0.0000
     43 C12         1.3660   58.7150   15.4440 C.ar      1 IH4    0.0000
     44 N13         1.1930   59.3620   14.2420 N.ar      1 IH4    0.0000
     45 H291       -3.9860   70.7110    2.6430 H         1 IH4    0.0000
     46 H292       -2.7840   70.4150    3.9220 H         1 IH4    0.0000
     47 H293       -2.2480   70.7780    2.2640 H         1 IH4    0.0000
     48 H252       -0.5620   66.6250    2.3840 H         1 IH4    0.0000
     49 H253       -2.1340   66.5810    1.5730 H         1 IH4    0.0000
     50 H30        -4.2090   66.2270    3.2260 H         1 IH4    0.0000
     51 H31        -4.9780   64.6680    4.9540 H         1 IH4    0.0000
     52 H23        -0.1810   65.1280    4.1110 H         1 IH4    0.0000
     53 H22        -0.9750   63.5550    5.8130 H         1 IH4    0.0000
     54 H32        -2.1470   61.5070    5.9890 H         1 IH4    0.0000
     55 H33        -2.9700   59.9060    7.6320 H         1 IH4    0.0000
     56 H19        -5.0560   64.3270    7.3000 H         1 IH4    0.0000
     57 H18        -5.9050   62.7250    8.9400 H         1 IH4    0.0000
     58 H162       -5.9350   59.7880    9.1070 H         1 IH4    0.0000
     59 H163       -4.2460   59.3230    9.4160 H         1 IH4    0.0000
     60 H35        -7.5670   58.5520   10.7820 H         1 IH4    0.0000
     61 H36        -9.7340   58.2350    9.6500 H         1 IH4    0.0000
     62 H43       -10.0290   62.4500    9.0120 H         1 IH4    0.0000
     63 H44        -7.8610   62.7660   10.1530 H         1 IH4    0.0000
     64 H382      -11.9010   59.2930    9.0210 H         1 IH4    0.0000
     65 H383      -11.9810   61.0430    8.7290 H         1 IH4    0.0000
     66 H392      -10.6330   60.7260    6.6530 H         1 IH4    0.0000
     67 H393      -10.6450   58.9730    6.9340 H         1 IH4    0.0000
     68 H402      -13.0860   60.7260    6.4840 H         1 IH4    0.0000
     69 H403      -13.1120   58.9740    6.7760 H         1 IH4    0.0000
     70 H412      -11.7990   58.6020    4.7280 H         1 IH4    0.0000
     71 H413      -11.7270   60.3520    4.4400 H         1 IH4    0.0000
     72 H421      -13.4590   59.2920    3.0390 H         1 IH4    0.0000
     73 H422      -14.2580   58.6560    4.4960 H         1 IH4    0.0000
     74 H423      -14.1930   60.4120    4.2120 H         1 IH4    0.0000
     75 H4         -4.1360   61.7710   12.3140 H         1 IH4    0.0000
     76 H52        -4.3600   59.3420   12.8700 H         1 IH4    0.0000
     77 H53        -3.1340   58.9840   11.6240 H         1 IH4    0.0000
     78 H62        -2.0240   59.2020   13.8250 H         1 IH4    0.0000
     79 H63        -2.7650   60.8000   14.0650 H         1 IH4    0.0000
     80 H7         -0.7470   60.0520   12.0480 H         1 IH4    0.0000
     81 H142       -0.7620   62.2590   11.2310 H         1 IH4    0.0000
     82 H143       -2.0270   62.6790   12.4080 H         1 IH4    0.0000
     83 H152       -2.9920   62.3230   10.1460 H         1 IH4    0.0000
     84 H153       -2.3340   60.6620   10.1380 H         1 IH4    0.0000
     85 H82        -0.8390   62.1370   14.1450 H         1 IH4    0.0000
     86 H83         0.5040   61.8760   13.0050 H         1 IH4    0.0000
     87 H10        -0.7080   60.9620   16.2720 H         1 IH4    0.0000
     88 H11         0.5490   58.9900   17.4400 H         1 IH4    0.0000
     89 H12         2.0160   57.8660   15.5980 H         1 IH4    0.0000
@<TRIPOS>BOND
     1    1    2 2
     2    2    3 1
     3    2    5 1
     4    3    4 1
     5    4   45 1
     6    4   46 1
     7    4   47 1
     8    5    6 1
     9    5   48 1
    10    5   49 1
    11    6    7 ar
    12    6    9 ar
    13    7    8 ar
    14    7   50 1
    15    8   11 ar
    16    8   51 1
    17    9   10 ar
    18    9   52 1
    19   10   11 ar
    20   10   53 1
    21   11   12 1
    22   12   13 ar
    23   12   15 ar
    24   13   14 ar
    25   13   54 1
    26   14   17 ar
    27   14   55 1
    28   15   16 ar
    29   15   56 1
    30   16   17 ar
    31   16   57 1
    32   17   18 1
    33   18   19 1
    34   18   58 1
    35   18   59 1
    36   19   20 am
    37   19   33 1
    38   20   21 1
    39   20   32 2
    40   21   22 ar
    41   21   26 ar
    42   22   23 ar
    43   22   60 1
    44   23   24 ar
    45   23   61 1
    46   24   25 ar
    47   24   27 1
    48   25   26 ar
    49   25   62 1
    50   26   63 1
    51   27   28 1
    52   27   64 1
    53   27   65 1
    54   28   29 1
    55   28   66 1
    56   28   67 1
    57   29   30 1
    58   29   68 1
    59   29   69 1
    60   30   31 1
    61   30   70 1
    62   30   71 1
    63   31   72 1
    64   31   73 1
    65   31   74 1
    66   33   34 1
    67   33   38 1
    68   33   75 1
    69   34   35 1
    70   34   76 1
    71   34   77 1
    72   35   36 1
    73   35   78 1
    74   35   79 1
    75   36   37 1
    76   36   39 1
    77   36   80 1
    78   37   38 1
    79   37   81 1
    80   37   82 1
    81   38   83 1
    82   38   84 1
    83   39   40 1
    84   39   85 1
    85   39   86 1
    86   40   41 ar
    87   40   44 ar
    88   41   42 ar
    89   41   87 1
    90   42   43 ar
    91   42   88 1
    92   43   44 ar
    93   43   89 1
@<TRIPOS>SUBSTRUCTURE
     1 IH4     1 RESIDUE           4 A     IH4     0 ROOT
